      Date: 03/08/2023      Time: 13:53:46  

     ___________________________________________________
     |                                                 |
     |  Livermore  Software  Technology  Corporation   |
     |                                                 |
     |  7374 Las Positas Road                          |
     |  Livermore, CA 94551                            |
     |  Tel: (925) 449-2500  Fax: (925) 449-2507       |
     |  www.lstc.com                                   |
     |_________________________________________________|
     |                                                 |
     |  LS-DYNA, A Program for Nonlinear Dynamic       |
     |  Analysis of Structures in Three Dimensions     |
     |  Version : smp s R11.1.0   Date: 07/27/2019     |
     |  Revision: 139235          Time: 10:15:41       |
     |                                                 |
     |  Features enabled in this version:              |
     |    Shared Memory Parallel                       |
     |    FFTW (multi-dimensional FFTW Library)        |
     |    Interactive Graphics                         |
     |    ANSYS Database format                        |
     |    ANSYS License (ANSYS150)                     |
     |    MADYMO indirect coupling (7.2 or higher)     |
     |    BigID  option                                |
     |                                                 |
     |  Licensed to: Chalmers Tekniska Hogskola - -- 10|
     |  Issued by  : Pascale.SaneGuttin_09122022       |
     |                                                 |
     |  Platform   : WINDOWS X64 (SSE2)                |
     |  OS Level   : Windows 7/8/10 & Srv 2008/2012 R2 |
     |  Compiler   : Intel Fortran XE 2016 MSVC++ 2010 |
     |  Hostname   : C22WXVC                           |
     |  Precision  : Single precision (I4R4)           |
     |  SVN Version: 139235                            |
     |                                                 |
     |  Unauthorized use infringes LSTC copyrights     |
     |_________________________________________________|


 Input file: run_0.k                                                                         

 The native file format       : 32-bit small endian
 Memory size from default     :    20000000

 ********  notice  ********  notice  ********  notice  ********
 *                                                            *
 * This is the LS-DYNA Finite Element code.                   *
 *                                                            *
 * Neither LSTC nor the authors assume any responsibility for *
 * the validity, accuracy, or applicability of any results    *
 * obtained from this system. Users must verify their own     *
 * results.                                                   *
 *                                                            *
 * LSTC endeavors to make the LS-DYNA code as complete,       *
 * accurate and easy to use as possible.                      *
 * Suggestions and comments are welcomed.  Please report any  *
 * errors encountered in either the documentation or results  *
 * immediately to LSTC through your site focus.               *
 *                                                            *
 * Copyright (C) 1990-2018                                    *
 * by Livermore Software Technology Corp. (LSTC)              *
 * All rights reserved                                        *
 *                                                            *
 ********  notice  ********  notice  ********  notice  ********

 Beginning of keyword reader                                   03/08/23 13:53:46


         **            ******  **********    *******                            
         **           *******  **********   ********                            
         **          **            **      ***                                  
         **           *******      **      **                                   
         **                 **     **      ***                                  
         *********   ********      **       ********                            
         *********   ******        **         ******                            
                                                                                
                                                                                
**           ******    *******    **    **  *      **    *****                  
**          *******    ********   **    **  **     **   *******                 
**         **          **   ***   **    **  ***    **  ***   ***                
**           **        **   ***   **    **  ***    **  ***   ***                
**             **   ** **    **     ****    ** **  **  *********                
**               **    **   ***      **     **    ***  **     **                
**               **    **   ***      **     **    ***  **     **                
*********  *******     *******       **     **     **  **     **                
*********  *******     ******        **     **      *  **     **                

            L I S T   O F   K E Y W O R D   C O U N T S   

total # of *AIRBAG_option..........................       0
total # of *AIRBAG_INTERACTION.....................       0
total # of *AIRBAG_PARTICLE........................       0
total # of *AIRBAG_REFERENCE_GEOMETRY..............       0
total # of *AIRBAG_SHELL_REFERENCE_GEOMETRY........       0
total # of *ALE_AMBIENT_HYDROSTATIC................       0
total # of *ALE_COUPLING_NODAL.....................       0
total # of *ALE_ELEMENT_POROSITY...................       0
total # of *ALE_FAIL_SWITCH_MMG....................       0
total # of *ALE_FRAGMENTATION......................       0
total # of *ALE_FSI_SWITCH_MMG.....................       0
total # of *ALE_REFERENCE_SYSTEM_GROUP.............       0
total # of *ALE_SWITCH_MMG.........................       0
total # of *BOUNDARY_ACOUSTIC_COUPLING.............       0
total # of *BOUNDARY_ACOUSTIC_COUPLING_MISMATCH....       0
total # of *BOUNDARY_ACOUSTIC_MAPPING..............       0
total # of *BOUNDARY_AEROHEATING_SEGMENT...........       0
total # of *BOUNDARY_ALE_MIXING_LENGTH.............       0
total # of *BOUNDARY_AMBIENT.......................       0
total # of *BOUNDARY_CONVECTION_SEGMENT............       0
total # of *BOUNDARY_CONVECTION_SET................       0
total # of *BOUNDARY_CYCLIC........................       0
total # of *BOUNDARY_DE_NON_REFLECTING.............       0
total # of *BOUNDARY_ELEMENT_METHOD_FLOW...........       0
total # of *BOUNDARY_ELEMENT_METHOD_CONTROL........       0
total # of *BOUNDARY_ELEMENT_METHOD_NEIGHBOR.......       0
total # of *BOUNDARY_ELEMENT_METHOD_WAKE...........       0
total # of *BOUNDARY_ELEMENT_METHOD_SYMMETRY.......       0
total # of *BOUNDARY_FIRE_SEGMENT..................       0
total # of *BOUNDARY_FLUX_SEGMENT..................       0
total # of *BOUNDARY_FLUX_SET......................       0
total # of *BOUNDARY_NON_REFLECTING................       0
total # of *BOUNDARY_MCOL..........................       0
total # of *BOUNDARY_PORE_FLUID ...................       0
total # of *BOUNDARY_PRESCRIBED_MOTION_NODE.+RIGID.       4
total # of *BOUNDARY_PRESCRIBED_FINAL_GEOMETRY.....       0
total # of *BOUNDARY_PRESCRIBED_MOTION_SET.........       0
total # of *BOUNDARY_PRESCRIBED_ORIENTATION........       0
total # of *BOUNDARY_PRESCRIBED_ACCELEROMETER......       0
total # of *BOUNDARY_PRESSURE_OUTFLOW_SEGMENT......       0
total # of *BOUNDARY_PRESSURE_OUTFLOW_SET..........       0
total # of *BOUNDARY_PWP_OPTION ...................       0
total # of *BOUNDARY_RADIATION_SEGMENT.(Type 1)....       0
total # of *BOUNDARY_RADIATION_SET.................       0
total # of *BOUNDARY_RADIATION_SEGMENT.(Type 2)....       0
total # of *BOUNDARY_RADIATION_SET.(Type 2)........       0
total # of *BOUNDARY_SLIDING_PLANE.................       0
total # of *BOUNDARY_SPC_NODE......................       4
total # of *BOUNDARY_SPC_SET.......................       0
total # of *BOUNDARY_SPH_FLOW......................       0
total # of *BOUNDARY_SPH_SYMMETRY_PLANE............       0
total # of *BOUNDARY_SYMMETRY_FAILURE..............       0
total # of *BOUNDARY_TEMPERATURE_NODE..............       0
total # of *BOUNDARY_TEMPERATURE_SET...............       0
total # of *BOUNDARY_THERMAL_BULKFLOW_SET..........       0
total # of *BOUNDARY_THERMAL_BULKFLOW_ELEMENT......       0
total # of *BOUNDARY_THERMAL_BULKNODE..............       0
total # of *BOUNDARY_THERMAL_WELD..................       0
total # of *BOUNDARY_USA...........................       0
total # of *BOUNDARY_PZEPOT........................       0
total # of *LOAD_PZECHARGE ........................       0
total # of *COMPONENT_GEBOD........................       0
total # of *COMPONENT_GEBOD_JOINT..................       0
total # of *COMPONENT_HYBRIDIII....................       0
total # of *COMPONENT_HYBRIDIII_JOINT..............       0
total # of *CONSTRAINED_BEAM_IN_SOLID..............       0
total # of *CONSTRAINED_BUTT_WELD..................       0
total # of *CONSTRAINED_EXTRA_NODES................       0
total # of *CONSTRAINED_EXTRA_NODES_SET............       0
total # of *CONSTRAINED_GLOBAL.....................       0
total # of *CONSTRAINED_INTERPOLATION..............       0
total # of *CONSTRAINED_JOINT_type.................       0
total # of *CONSTRAINED_JOINT_COOR_type............       0
total # of *CONSTRAINED_JOINT_..._FAILURE..........       0
total # of *CONSTRAINED_JOINT_USER_FORCE...........       0
total # of *CONSTRAINED_JOINT_STIFFNESS_type.......       0
total # of *CONSTRAINED_LAGRANGE_IN_SOLID..........       0
total # of *CONSTRAINED_LINEAR.....................       0
total # of *CONSTRAINED_LINEAR_LOCAL...............       0
total # of *CONSTRAINED_NODAL_RIGID_BODY_option....       0
total # of *CONSTRAINED_NODE_SET...................       0
total # of *CONSTRAINED_RIGID_BODIES...............       0
total # of *CONSTRAINED_RIGID_BODY_STOPPERS........       0
total # of *CONSTRAINED_SHELL-SOLID................       0
total # of *CONSTRAINED_SPLINE.....................       0
total # of *CONSTRAINED_SPOTWELD+CONSTRAINED_RIVET.       0
total # of *CONSTRAINED_SPR2/INTERPOLATION_SPOTWELD       0
total # of *CONSTRAINED_TIE-BREAK..................       0
total # of *CONSTRAINED_TIE-NODE-FAILURE...........       0
total # of *CONTACT_option.........................       0
total # of *CONTACT_GEOMETRIC_option...............       0
total # of *CONTACT_GUIDED_CABLE...................       0
total # of *CONTACT_1D.............................       0
total # of *CONTACT_2D.............................       0
total # of *CONTACT_2D_AUTOMATIC...................       0
total # of *CONTROL_ACOUSTIC.......................       0
total # of *CONTROL_ADAPTIVITY.....................       0
total # of *CONTROL_BULK_VISCOSITY.................       0
total # of *CONTROL_CHECK..........................       0
total # of *CONTROL_CONTACT........................       0
total # of *CONTROL_COUPLING.......................       0
total # of *CONTROL_CPM............................       0
total # of *CONTROL_CPU............................       0
total # of *CONTROL_DYNAMIC_RELAXATION (DAMPING)...       0
total # of *CONTROL_EFG............................       0
total # of *CONTROL_ENERGY.........................       0
total # of *CONTROL_EXPLOSIVE_SHADOW...............       0
total # of *CONTROL_FREQUENCY_DOMAIN...............       0
total # of *CONTROL_FREQUENCY_RESPONSE_FUNCTION....       0
total # of *CONTROL_HOURGLASS......................       0
total # of *MPP_option.............................       0
total # of *CONTROL_MAT............................       0
total # of *CONTROL_NONLOCAL.......................       0
total # of *CONTROL_OUTPUT.........................       0
total # of *CONTROL_PARALLEL.......................       0
total # of *CONTROL_REFINE.........................       0
total # of *CONTROL_SHELL..........................       0
total # of *CONTROL_SOLID..........................       0
total # of *CONTROL_SOLUTION.......................       0
total # of *CONTROL_SPH............................       0
total # of *CONTROL_SUBCYCLE.......................       0
total # of *CONTROL_TERMINATION....................       1
total # of *CONTROL_THERMAL_SOLVER.................       0
total # of *CONTROL_THERMAL_TIMESTEP...............       0
total # of *CONTROL_THERMAL_NONLINEAR..............       0
total # of *CONTROL_THERMAL_EIGENVALUE.............       0
total # of *CONTROL_TIMESTEP.......................       0
total # of *CONTROL_VIBRO_ACOUSTIC.................       0
total # of *DAMPING_GLOBAL.........................       0
total # of *DAMPING_PART_MASS......................       0
total # of *DAMPING_PART_MASS_SET..................       0
total # of *DAMPING_PART_STIFFNESS.................       0
total # of *DAMPING_PART_STIFFNESS_SET.............       0
total # of *DAMPING_RELATIVE.......................       0
total # of *DAMPING_STRUCTURAL.....................       0
total # of *CONTROL_DISCRETE_SPHERE................       0
total # of *DATABASE_ABSTAT........................       0
total # of *DATABASE_ATDOUT........................       0
total # of *DATABASE_AVSFLT........................       0
total # of *DATABASE_BEARING.......................       0
total # of *DATABASE_BNDOUT........................       0
total # of *DATABASE_CPM_SENSOR....................       0
total # of *DATABASE_CURVOUT.......................       0
total # of *DATABASE_DISBOUT.......................       0
total # of *DATABASE_DCFAIL........................       0
total # of *DATABASE_DEFGEO........................       0
total # of *DATABASE_DEFORC........................       0
total # of *DATABASE_DEMASSFLOW....................       0
total # of *DATABASE_ELOUT.........................       0
total # of *DATABASE_FSI...........................       0
total # of *DATABASE_FSI_SENSOR....................       0
total # of *DATABASE_GCEOUT........................       0
total # of *DATABASE_GLSTAT........................       0
total # of *DATABASE_H3OUT.........................       0
total # of *DATABASE_JNTFORC.......................       0
total # of *DATABASE_MASSOUT.......................       0
total # of *DATABASE_MATSUM........................       0
total # of *DATABASE_MPGS.......... ...............       0
total # of *DATABASE_MOVIE.........................       0
total # of *DATABASE_NCFORC........................       0
total # of *DATABASE_NODFOR........................       0
total # of *DATABASE_NODOUT........................       0
total # of *DATABASE_PBSTAT........................       0
total # of *DATABASE_PGSTAT........................       0
total # of *DATABASE_PG_SENSOR.....................       0
total # of *DATABASE_PLLYOUT.......................       0
total # of *DATABASE_PRTUBEOUT.....................       0
total # of *DATABASE_RBDOUT........................       0
total # of *DATABASE_RCFORC_MOMENT.................       0
total # of *DATABASE_RCFORC........................       0
total # of *DATABASE_RWFORC........................       0
total # of *DATABASE_SBTOUT........................       0
total # of *DATABASE_SECFORC.......................       0
total # of *DATABASE_SLEOUT........................       0
total # of *DATABASE_SPCFORC.......................       0
total # of *DATABASE_SPH...........................       0
total # of *DATABASE_TRACER........................       0
total # of *DATABASE_TRACER_ALE....................       0
total # of *DATABASE_TRACER_GENERATE...............       0
total # of *DATABASE_SUPERPLASTIC..................       0
total # of *DATABASE_SWFORC........................       0
total # of *DATABASE_TPRINT........................       0
total # of *DATABASE_TRHIST........................       0
total # of *DATABASE_BINARY_D3PLOT.................       1
total # of *DATABASE_BINARY_D3THDT.................       0
total # of *DATABASE_BINARY_D3PART.................       0
total # of *DATABASE_BINARY_D3DRFL.................       0
total # of *DATABASE_BINARY_D3DUMP.................       0
total # of *DATABASE_BINARY_RUNRSF.................       0
total # of *DATABASE_BINARY_INTFOR.................       0
total # of *DATABASE_BINARY_FSIFOR.................       0
total # of *DATABASE_BINARY_CPMFOR.................       0
total # of *DATABASE_BINARY_PBMFOR.................       0
total # of *DATABASE_BINARY_PGFOR..................       0
total # of *DATABASE_BINARY_DEMFOR.................       0
total # of *DATABASE_BINARY_BLSTFOR................       0
total # of *DATABASE_CROSS_SECTION_option..........       0
total # of *DATABASE_EXTENT_AVS....................       0
total # of *DATABASE_EXTENT_MOVIE .................       0
total # of *DATABASE_EXTENT_MPGS...................       0
total # of *DATABASE_EXTENT_BINARY.................       0
total # of *DATABASE_EXTENT_BINARY_COMP............       0
total # of *DATABASE_EXTENT_D3PART.................       0
total # of *DATABASE_EXTENT_INTFOR.................       0
total # of *DATABASE_FREQUENCY_ASCII_option........       0
total # of *DATABASE_FREQUENCY_BINARY_D3ACC........       0
total # of *DATABASE_FREQUENCY_BINARY_D3ACS........       0
total # of *DATABASE_FREQUENCY_BINARY_D3ATV........       0
total # of *DATABASE_FREQUENCY_BINARY_D3FTG........       0
total # of *DATABASE_FREQUENCY_BINARY_D3PSD........       0
total # of *DATABASE_FREQUENCY_BINARY_D3RMS........       0
total # of *DATABASE_FREQUENCY_BINARY_D3SPCM.......       0
total # of *DATABASE_FREQUENCY_BINARY_D3SSD........       0
total # of *DATABASE_FREQUENCY_BINARY_D3ZCF........       0
total # of *DATABASE_HISTORY_NODE_option...........       0
total # of *DATABASE_HISTORY_SOLID_option..........       0
total # of *DATABASE_HISTORY_BEAM_option...........       0
total # of *DATABASE_HISTORY_SHELL_option..........       0
total # of *DATABASE_HISTORY_SPH_option............       0
total # of *DATABASE_HISTORY_TSHELL_option.........       0
total # of *DATABASE_NODAL_FORCE_GROUP.............       0
total # of *DATABASE_POWER_SPECTRAL_DENSITY........       0
total # of *DATABASE_POWER_SPECTRAL_DENSITY_FREQUE.       0
total # of *DATABASE_PWP_FLOW .....................       0
total # of *DEFINE_ADAPTIVE_SOLID_TO_DES...........       0
total # of *DEFINE_ADAPTIVE_SOLID_TO_HBOND.........       0
total # of *DEFINE_ADAPTIVE_SOLID_TO_SPH...........       0
total # of *DEFINE_BEAM_SOLID_COUPLING.............       0
total # of *DEFINE_BOX.............................       0
total # of *DEFINE_CONSTRUCTION_STAGES ............       0
total # of *DEFINE_CONTACT_EXCLUSION...............       0
total # of *DEFINE_COORDINATE_option...............       0
total # of *DEFINE_CPM_BAG_INTERACTION.............       0
total # of *DEFINE_CPM_CHAMBER.....................       0
total # of *DEFINE_CPM_GAS_PROPERTIES..............       0
total # of *DEFINE_CPM_VENT........................       0
total # of *DEFINE_CURVE...........................       1
total # of *DEFINE_CURVE_DUPLICATE.................       0
total # of *DEFINE_CURVE_ENTITY....................       0
total # of *DEFINE_CURVE_FUNCTION..................       0
total # of *DEFINE_DE_ACTIVE_REGION................       0
total # of *DEFINE_DE_INJECTION....................       0
total # of *DEFINE_DE_TO_SURFACE_COUPLING..........       0
total # of *DEFINE_DE_TO_SURFACE_EROSION...........       0
total # of *DEFINE_DE_TO_SURFACE_TIED..............       0
total # of *DEFINE_DE_TO_BEAM_COUPLING.............       0
total # of *DEFINE_DE_BOND.........................       0
total # of *DEFINE_DE_HBOND........................       0
total # of *DEFINE_DE_BY_PART......................       0
total # of *DEFINE_DE_MASSFLOW_PLANE...............       0
total # of *DEFINE_DE_COHESIVE.....................       0
total # of *DEFINE_FRACTURE........................       0
total # of *DEFINE_FRICTION........................       0
total # of *DEFINE_FUNCTION........................       0
total # of *DEFINE_GROUND_MOTION...................       0
total # of *DEFINE_PRESSURE_TUBE...................       0
total # of *ALE_STRUCTURED_MESH....................       0
total # of *SMMALE_MESH_VOLUME_FILLING.............       0
total # of *DEFINE_MULTI_SHEET_CONNECTORS..........       0
total # of *DEFINE_PLANE...........................       0
total # of *DEFINE_PBLAST_HEGEO....................       0
total # of *DEFINE_PBLAST_AIRGEO...................       0
total # of *DEFINE_SPH_ACTIVE_REGION...............       0
total # of *DEFINE_SPH_INJECTION...................       0
total # of *DEFINE_VECTOR..........................       0
total # of *DEFINE_VECTOR_NODE.....................       0
total # of *DEFINE_SD_ORIENTATION..................       0
total # of *DEFINE_ELEMENT_DEATH_SOLID.............       0
total # of *DEFINE_ELEMENT_DEATH_BEAM..............       0
total # of *DEFINE_ELEMENT_DEATH_SHELL.............       0
total # of *DEFINE_ELEMENT_DEATH_TSHELL............       0
total # of *DEFINE_PG_BAG_INTERACTION..............       0
total # of *DEFINE_PG_CHAMBER......................       0
total # of *DEFINE_PG_GAS_PROPERTIES...............       0
total # of *DEFINE_PG_VENT.........................       0
total # of *DEFINE_SHELL_ELEMENT_DEATH_THICK.......       0
total # of *DEFINE_ELEMENT_EROSION_SHELL...........       0
total # of *DEFINE_ELEMENT_EROSION_TSHELL..........       0
total # of *DEFINE_SPH_TO_SPH_COUPLING.............       0
total # of *DEFINE_SPH_DE_COUPLING.................       0
total # of *DEFINE_SPOTWELD_RUPTURE_STRESS.........       0
total # of *DEFINE_SPOTWELD_RUPTURE_PARAMETER......       0
total # of *DEFINE_STAGED_CONSTRUCTION_PART .......       0
total # of *DATABASE_BKSTAT........................       0
total # of *DEFORMABLE_TO_RIGID....................       0
total # of *DEFORMABLE_TO_RIGID_AUTOMATIC..........       0
total # of *DEFORMABLE_TO_RIGID_INERTIA............       0
total # of *ELEMENT_BEAM_option....................       0
total # of *ELEMENT_BEAM_PULLEY....................       0
total # of *ELEMENT_BEAM_SOURCE....................       0
total # of *ELEMENT_DISCRETE.......................       0
total # of *ELEMENT_MASS...........................       0
total # of *ELEMENT_MASS_PART......................       0
total # of *ELEMENT_SEATBELT.......................       0
total # of *ELEMENT_SEATBELT_ACCELEROMETER.........       0
total # of *ELEMENT_SEATBELT_PRETENSIONER..........       0
total # of *ELEMENT_SEATBELT_RETRACTOR.............       0
total # of *ELEMENT_SEATBELT_SENSOR................       0
total # of *ELEMENT_SEATBELT_SLIPRING..............       0
total # of *ELEMENT_SHELL_option...................      75
total # of *ELEMENT_SHELL_NURBS_PATCH..............       0
total # of *ELEMENT_SOLID..........................       0
total # of *ELEMENT_SOLID_NURBS_PATCH..............       0
total # of *ELEMENT_SPH............................       0
total # of *ELEMENT_TSHELL_option..................       0
total # of *ELEMENT_INERTIA........................       0
total # of *MODULE_LOAD............................       0
total # of *MODULE_USE.............................       0
total # of *SENSOR_SWITCH_SHELL_TO_VENT............       0
total # of *SENSOR_CPM_AIRBAG......................       0
total # of *PG_SWITCH_SHELL_TO_VENT................       0
total # of *EOS_option.............................       0
total # of *FATIGUE................................       0
total # of *FATIGUE_MEAN_STRESS_CORRECTION.........       0
total # of *FREQUENCY_DOMAIN_ACCELERATION_UNIT.....       0
total # of *FREQUENCY_DOMAIN_ACOUSTIC_BEM..........       0
total # of *FREQUENCY_DOMAIN_ACOUSTIC_FEM..........       0
total # of *FREQUENCY_DOMAIN_ACOUSTIC_FRINGE_PLOT..       0
total # of *FREQUENCY_DOMAIN_ACOUSTIC_INCIDENT_WAVE       0
total # of *FREQUENCY_DOMAIN_ACOUSTIC_SOUND_SPEED..       0
total # of *FREQUENCY_DOMAIN_FRF...................       0
total # of *FREQUENCY_DOMAIN_MODE..................       0
total # of *FREQUENCY_DOMAIN_PATH..................       0
total # of *FREQUENCY_DOMAIN_RANDOM_VIBRATION......       0
total # of *FREQUENCY_DOMAIN_RESPONSE_SPECTRUM.....       0
total # of *FREQUENCY_DOMAIN_SEA...................       0
total # of *FREQUENCY_DOMAIN_SEA_CONNECTION........       0
total # of *FREQUENCY_DOMAIN_SEA_INPUTPOWER........       0
total # of *FREQUENCY_DOMAIN_SEA_SUBSYSTEM.........       0
total # of *FREQUENCY_DOMAIN_SSD...................       0
total # of *FV_MESHES..............................       0
total # of *FV_FSI.................................       0
total # of *HOURGLASS..............................       0
total # of *INITIAL_AIRBAG_PARTICLE_POSITION.......       0
total # of *INITIAL_AXIAL_FORCE_BEAM...............       0
total # of *INITIAL_CRASHFRONT.....................       0
total # of *INITIAL_DETONATION.....................       0
total # of *INITIAL_FATIGUE_DAMAGE_RATIO...........       0
total # of *INITIAL_FIELD_SOLID....................       0
total # of *INITIAL_IMPULSE_MINE...................       0
total # of *INITIAL_MOMENTUM.......................       0
total # of *INITIAL_PWP_DEPTH .....................       0
total # of *INITIAL_STRAIN_SHELL...................       0
total # of *INITIAL_STRAIN_SHELL_SET...............       0
total # of *INITIAL_STRAIN_SHELL_NURBS_PATCH.......       0
total # of *INITIAL_STRAIN_SOLID...................       0
total # of *INITIAL_STRAIN_SOLID_NURBS_PATCH.......       0
total # of *INITIAL_STRAIN_TSHELL..................       0
total # of *INITIAL_STRESS_BEAM....................       0
total # of *INITIAL_STRESS_DEPTH ..................       0
total # of *INITIAL_STRESS_SECTION.................       0
total # of *INITIAL_STRESS_SHELL...................       0
total # of *INITIAL_STRESS_SHELL_SET...............       0
total # of *INITIAL_STRESS_SHELL_NURBS_PATCH.......       0
total # of *INITIAL_STRESS_SOLID...................       0
total # of *INITIAL_STRESS_SOLID_SET...............       0
total # of *INITIAL_STRESS_SOLID_NURBS_PATCH.......       0
total # of *INITIAL_STRESS_SPH.....................       0
total # of *INITIAL_STRESS_TSHELL..................       0
total # of *INITIAL_TEMPERATURE_SET................       0
total # of *INITIAL_TEMPERATURE_NODE...............       0
total # of *INITIAL_VELOCITY.......................       0
total # of *INITIAL_VELOCITY_NODE..................       0
total # of *INITIAL_VELOCITY_RIGID_BODY............       0
total # of *INITIAL_VOID_PART......................       0
total # of *INITIAL_VOID_SET.......................       0
total # of *INITIAL_VOLUME_FRACTION_GEOMETRY.......       0
total # of *INITIAL_HYDROSTATIC_ALE................       0
total # of *INITIAL_EOS_ALE........................       0
total # of *INITIAL_VAPOR_PART.....................       0
total # of *INITIAL_ALE_MAPPING....................       0
total # of *INITIAL_LAG_MAPPING....................       0
total # of *INITIAL_SOLID_VOLUME...................       0
total # of *INTEGRATION_BEAM.......................       0
total # of *INTEGRATION_SHELL......................       0
total # of *INTERFACE_COMPONENT_option.............       0
total # of *INTERFACE_DE_HBOND.....................       0
total # of *INTERFACE_LINKING_DISCRETE_NODE........       0
total # of *INTERFACE_LINKING_DISCRETE_NODE_SET....       0
total # of *INTERFACE_LINKING_EDGE.................       0
total # of *INTERFACE_LINKING_SEGMENT..............       0
total # of *INTERFACE_SPRINGBACK...................       0
total # of *INTERFACE_SSI_AUXILIARY_FREE_FIELD.....       0
total # of *INTERFACE_SSI_STATIC...................       0
total # of *INTERFACE_SSI..........................       0
total # of *LOAD_ALE_CONVECTION ...................       0
total # of *LOAD_AIR_PRESSURE......................       0
total # of *LOAD_BEAM..............................       0
total # of *LOAD_BEAM_SET..........................       0
total # of *LOAD_BODY_GENERALIZED..................       0
total # of *LOAD_BODY_POROUS.......................       0
total # of *LOAD_BODY_RX...........................       0
total # of *LOAD_BODY_RY...........................       0
total # of *LOAD_BODY_RZ...........................       0
total # of *LOAD_BODY_X............................       0
total # of *LOAD_BODY_Y............................       0
total # of *LOAD_BODY_Z............................       0
total # of *LOAD_BRODE.............................       0
total # of *LOAD_BLAST.............................       0
total # of *LOAD_BLAST_ENHANCED....................       0
total # of *LOAD_BLAST_SEGMENT.....................       0
total # of *LOAD_BLAST_SEGMENT_SET.................       0
total # of *LOAD_DENSITY_DEPTH ....................       0
total # of *LOAD_GRAVITY_PART .....................       0
total # of *LOAD_HEAT_CONTROLLER ..................       0
total # of *LOAD_HEAT_GENERATION_SET...............       0
total # of *LOAD_HEAT_GENERATION_SOLID.............       0
total # of *LOAD_HEAT_GENERATION_SET_SHELL.........       0
total # of *LOAD_HEAT_GENERATION_SHELL.............       0
total # of *LOAD_NODE..............................       0
total # of *LOAD_NODE_SET..........................       0
total # of *LOAD_NSG...............................       0
total # of *LOAD_REMOVE_PART ......................       0
total # of *LOAD_SEGMENT...........................       0
total # of *LOAD_SEGMENT_FSILNK....................       0
total # of *LOAD_SEGMENT_NONUNIFORM................       0
total # of *LOAD_SEGMENT_SET.......................       0
total # of *LOAD_SEGMENT_SET_NONUNIFORM............       0
total # of *LOAD_SEISMIC_SSI_NODE..................       0
total # of *LOAD_SEISMIC_SSI_SET...................       0
total # of *LOAD_SEISMIC_SSI_POINT.................       0
total # of *LOAD_SEISMIC_SSI_DECONV................       0
total # of *LOAD_SHELL.............................       0
total # of *LOAD_SHELL_SET.........................       0
total # of *LOAD_STIFFEN_PART .....................       0
total # of *LOAD_SUPERPLASTIC_FORMING..............       0
total # of *LOAD_SURFACE_STRESS....................       0
total # of *LOAD_THERMAL_option_ELEMENT............       0
total # of *LOAD_THERMAL_option_NODE...............       0
total # of *LOAD_THERMAL_option....................       0
total # of *LOAD_THERMAL_LOAD_CURVE................       0
total # of *LOAD_THERMAL_TOPAZ ....................       0
total # of *LOAD_THERMAL_VARIABLE_SHELL_option.....       0
total # of *LOAD_THERMAL_VARIABLE_BEAM _option.....       0
total # of *LOAD_VIBRO_ACOUSTIC....................       0
total # of *LOAD_VOLUME_LOSS ......................       0
total # of *LSO_DOMAIN.............................       0
total # of *LSO_POINT_SET..........................       0
total # of *LSO_REGION.............................       0
total # of *LSO_TIME_SEQUENCE......................       0
total # of *LSO_VARIABLE_GROUP.....................       0
total # of *MAT_option.............................       1
total # of *MAT_THERMAL_option.....................       0
total # of *MAT_NONLOCAL...........................       0
total # of *NODE...................................     104
total # of *NODE_MERGE.............................       0
total # of *NODE_MERGE_TOLERANCE...................       0
total # of *PART_option card.......................       1
total # of *PART_ANNEAL_option.....................       0
total # of *PARTICLE_BLAST.........................       0
total # of *PARTICLE_GENERAL.......................       0
total # of *RIGIDWALL_option.......................       0
total # of *SECTION_option.........................       1
total # of *SET_2D_SEGMENT.........................       0
total # of *SET_BEAM...............................       0
total # of *SET_BOX ...............................       0
total # of *SET_DISCRETE...........................       0
total # of *SET_MODE...............................       0
total # of *SET_NODE_option........................       0
total # of *SET_PART...............................       0
total # of *SET_POINT..............................       0
total # of *SET_SEGMENT............................       0
total # of *SET_SHELL_option.......................       0
total # of *SET_SOLID..............................       0
total # of *SET_TSHELL.............................       0
total # of *TERMINATION_BODY.......................       0
total # of *TERMINATION_DELETED_SHELLS.............       0
total # of *TERMINATION_DELETED_SOLIDS.............       0
total # of *TERMINATION_NODE.......................       0
total # of *TERMINATION_CONTACT....................       0
total # of *TITLE..................................       0
total # of *USER_INTERFACE_CONTROL.................       0
total # of *USER_INTERFACE_FRICTION................       0
total # of *USER_INTERFACE_FORCES..................       0
total # of *USER_INTERFACE_CONDUCTIVITY............       0
total # of *USER_LOAD..............................       0
total # of *USER_MATERIAL_VENDOR...................       0
total # of *USER_MATERIAL_LICENSE..................       0
total # of *USER_NONLOCAL_SEARCH...................       0
total # of *USER_PARAMETER.........................       0
total # of *CHANGE_BOUNDARY_CONDITIONS.............       0
total # of *CHANGE_CONTACT_SMALL_PENETRATION.......       0
total # of *CHANGE_RIGID_BODY_CONSTRAINTS..........       0
total # of *CHANGE_RIGID_BODY_INERTIA..............       0
total # of *CHANGE_THERMAL_PARAMETERS..............       0
total # of *CHANGE_VELOCITY_ZERO...................       0
total # of *CHANGE_VELOCITY_RIGID_BODY.............       0
total # of *DELETE_ALECPL..........................       0
total # of *DELETE_CONTACT.........................       0
total # of *DELETE_CONTACT_2DAUTO..................       0
total # of *DELETE_FSI.............................       0
total # of *DELETE_ENTITY..........................       0
total # of *DELETE_ELEMENT_SOLID...................       0
total # of *DELETE_ELEMENT_BEAM....................       0
total # of *DELETE_ELEMENT_SHELL...................       0
total # of *DELETE_ELEMENT_TSHELL..................       0
total # of *DELETE_PART............................       0
total # of *RIGID_DEFORMABLE_CONTROL...............       0
total # of *RIGID_DEFORMABLE_D2R...................       0
total # of *RIGID_DEFORMABLE_R2D...................       0
total # of *STRESS_INITIALIZATION..................       0

 D E F I N E D   P A R A M E T E R S

 in file run_0.k

I               NO_USE                              0 (GLOBAL)

 Memory required to process keyword     :      355750 

 LS-DYNA will perform a structural only analysis 



                                                                         
            code input version =1993
            formats            =mlarg



 c o n t r o l   i n f o r m a t i o n

    CONTROL CARD 1. Model Size-General

    number of materials or property sets...........       1

    number of nodal+scalar points..................     104

    number of merged nodal points..................       0

    number of solid elements.......................       0

    number of beam elements........................       0

    number of shell elements.......................      75

    number of thick shell elements.................       0

    number of user defined material subroutines....       0

    number of material groups tied to solids.......       0

    number of tracer particles.....................       0

    number of super elements.......................       0

    number of solid tetrahedrons with 10 nodes.....       0

    number of quadratic shell elements.............       0

    number of shells with extra degrees of freedom.       0

    number of solids with extra degrees of freedom.       0

    number of user defined sections................       0

    activate sensor capability (inactive=0)........       0

    number of user defined solid element types.....       0

    number of solid interpolation elements.........       0

    number of user defined shell element types.....       0

    number of shell interpolation elements.........       0

    number of constrained nodes for interpolation..       0

    consistent mass matrix for user-def elements...       0

    number of shell nurbs patches..................       0

    number of solid nurbs patches..................       0


    CONTROL CARD 2. Model Size-Boundary Conditions

    number of spc nodes............................       4

    number of spc coordinates......................       0

    number of velocity cards.......................       4

    number of non-reflecting boundary segments.....       0

    number of b. c. cards..........................       0

    number of b. c. cards with failure.............       0

    number of box definition for b. c. card........       0

    number of nodes/interface for cyclic symmetry..       0

    number of rigid bodies with attachment nodes...       0


    CONTROL CARD 3. Model Size-Loading

    number of load curves..........................       1

    number of nodes for load curve functions.......       0

    number of curves for entities..................       0

    number of concentrated load cards..............       0

    number of pressure load cards..................       0

    number of nonuniform pressure loads-4 nodes....       0

    number of nonuniform pressure loads-6 nodes....       0

    number of nonuniform pressure loads-8 nodes....       0

    number of generalized body force sets..........       0

    number of beam pressure card definitions.......       0

    number of detonation points....................       0

    number of zones for momentum deposition........       0

    number of points in density vs. depth curve....       0

    number of outflow boundary segments............       0

    number of load curve feedback sets.............       0

    number of pressure load sets with masks........       0

    number of spray systems .......................       0

    number of initial stress by cross-sections sets       0

    number of pressure load sets...................       0

    number of ground motion definitions............       0

    number of ground motions specified at nodes....       0

    number of ground motions specified at points...       0

    number of ground motions specified in bin file.       0

    number of segsets with specified ground motion.       0

    number of soil-structure interfaces for output.       0

    number of aero-acoustic load cards.............       0

    number of delayed curve........................       0

    number of pid controller.......................       0


    CONTROL CARD 4. Model Size-Constraints and Contact

    number of rigid wall definitions...............       0

    number of number of contact definitions........       0

    number of number of guided cable contacts......       0

    number of shell-solid interfaces...............       0

    number of tie-breaking slide lines.............       0

    number of blocks of tied nodes with fracture ..       0

    number of tied nodal pairs for linking.........       0

    number of constraint cards.....................       0

    number of linear constraint equations..........       0

    number of 1d slidelines........................       0

    number of adaptive constraints.................       0

    number of ALE smoothing constraints............       0

    number of 2d slidelines........................       0

    number of 2d automatic contacts................       0

    number of part IDs for interior contact........       0

    number of beam release sets....................       0

    max. number of nodes in any beam release set...       0


    CONTROL CARD 5. Model Size-Rigid Body Parameters

    number of rigid body constraint sets...........       0

    number of rigid body merge cards...............       0

    number of joint constraints....................       0

    number of joint failure definitions............       0

    number of joint user force definitions.........       0

    number of extra node blocks....................       0

    number of rigid body inertia definitions.......       0

    number of geometric contact entities...........       0

    number of joint stiffness definitions..........       0

    number of rigid body stoppers..................       0

    joint formulation for rigid bodies.............       0
          eq.0:  penalty                                 
          eq.1:  lagrange multiplier                     

    generalized stiffness angle update ............       0
          eq.0:  incremental formulation                 
          eq.1:  total formulation                       

    number of flexible bodies......................       0
          lt.0:  stress recovery active                  

    number of relative damping definitions.........       0

    flag for reading rigid surface contact input...       0
          eq.0:  no rigid surface contact                 
          eq.1:  read rigid surface input                

    number of Hybrid III dummies ..................       0

    number of Hybrid III joint modifications ......       0

    number of interpolation constraints ...........       0

    flag for metalforming fast rigid bodies........       0
          eq.0:  full rigid body treatment               
          eq.1:  fast rigid body treatment               

    number of prescribed rigid body orientations          0


    CONTROL CARD 6. Model Size-Discrete Elements & Seat Belts

    number of spring-damper material types.........       0

    number of local coordinate systems.............       0

    number of discrete springs and dampers.........       0

    number of lumped masses........................       0

    number of parts with added mass................       0

    number of nodes with mass matrix...............       0

    number of seat belt materials..................       0

    number of seat belt elements...................       0

    number of 2d seat belt elements................       0

    number of slip rings...........................       0

    number of retractors...........................       0

    number of sensors..............................       0

    number of pretensioners........................       0

    number of accelerometers.......................       0

    number of discrete rotary inertias.............       0

    number of SPH particles........................       0

    number of groups of SPH particles..............       0


    CONTROL CARD 7. Model Size-Output Control

    number of cross section definitions............       0

    number of nodal groups for resultant forces....       0

    number of interface segments for linking.......       0

    max. number of segments defining rigid wall....       0

    number of power spectrum density databases.....       0


    CONTROL CARD 8. Computation Options-Termination

    termination time...............................    0.3800E+02

    termination cycle..............................       0

    reduction factor for minimum time step (TSMIN).    0.0000E+00

    percent change in energy ratio for termination.    0.0000E+00

    percent change in total mass for termination...    0.0000E+00

    number of nodes for displacement termination...       0

    number of rigid bodies for disp. termination...       0

    number of conditions for contact termination...       0

    number of conditions for ldcurve termination...       0

    ID of sensor_switch  for sensor  termination... 0


    CONTROL CARD 8a. Computation Options-Start      

    start time.....................................    0.0000E+00


    CONTROL CARD 9. Computation Options-Time Step Size 

    initial time step size.........................    0.0000E+00

    time step scale factor.........................    0.9000E+00

    time step size calculation for 4-node shells...       0
          eq.0:  based on longest element side          
          eq.1:  based on longest element diagonal      
          eq.2:  based on bar wave speed max side       
          eq.3:  based on optimal time step size        
                 estimator                              

    shell element minimum time step assignment.....    0.0000E+00

    time step size for mass scaled solution, dt2ms.    0.0000E+00
          lt.0:  minimum time step size permitted       

    load curve number for maximum timestep.........       0

    erosion flag for solid and thick shells........       0
          eq.0:  no                                      
          eq.1:  yes                                     

    option part set ID for eroding solids.......... 0
          eq.0:  all solids are checked if eros_flag=1   
          gt.0:  solids within part set are checked      

    limit mass scaling to the first time step......       0
          eq.0:  no                                      
          eq.1:  yes                                     

    scale factor on initial dt to determine dt2ms..    0.0000E+00

    load curve ID for mass scaling ................ 0

    flag for selective mass scaling................       0
          eq.0:  off                                     
          eq.1:  on                                      
          eq.2:  on for part subset                      

    consistent constraint logical switch...........       F

    flag for part set for erosion .................       0
          eq.0:  no                                      
          eq.1:  yes                                     

    flag for accounting for rotations in sms.......    0.0000E+00
          eq.0.:  off (default)                           
          gt.0.:  on                                      
    implicit_explicit_hybrid part set..............       0



    CONTROL CARD 10. Computation Options-Loading

    x-ground acceleration..........................       0
          eq.0:  no                                      
          eq.1:  yes                                     

    y-ground acceleration..........................       0
          eq.0:  no                                      
          eq.1:  yes                                     

    z-ground acceleration..........................       0
          eq.0:  no                                      
          eq.1:  yes                                     

    x-angular velocity.............................       0
          eq.0:  no                                      
          eq.1:  yes                                     

    y-angular velocity.............................       0
          eq.0:  no                                      
          eq.1:  yes                                     

    z-angular velocity.............................       0
          eq.0:  no                                      
          eq.1:  yes                                     

    number of materials receiving body forces......       0
          eq.0:  all                                     
          eq.n:  subset of n materials                   

    flag for user defined loading subroutine.......       0
          lt.0:  magnitude=# of input constants          
          eq.0:  no                                      
          eq.1:  yes, but no additional input            

    explosive initiation option....................       0
          eq.0:  lighting times based on distance        
          eq.1:  lighting times include geometric        
                 effects for wave shapers, etc.          

    sub-sea structural analysis option.............       0
          eq.0:  off                                     
          eq.1:  on with 1 point integration             
          eq.4:  on with 4 point integration             
    contact pressure calculation option............       0
          eq.0:  off (default)                           
          eq.1:  on                                      
    # of user defined loading set..................       0


    CONTROL CARD 11. Computation Options-Input Control

    initialization of velocities...................       0
          eq.0: velocities are initialized to zero       
          eq.1: initial velocities are read in           
          eq.2: all velocities have same input value     
          eq.3: as 2 but exempted nodes are defined      
          eq.4: box option                               
          eq.5: generation with arbitrary numbering      
          eq.6: rotational and translational via IDs     
          eq.7: option 6 but applied during calculation  

    time to apply initial velocites (option 7).....    0.0000E+00

    arbitrary node and element numbering flag .....       1

    constitute, eqs-of-state, cross-section option.       0
          eq.0:  off                                     
          eq.1:  separate input is required for each     

    specified nodal coordinate format..............    e20.0

    flag for thermodynamic control volume input....       0

    overpressure option (eq.0 no,  eq.1 yes).......       0

    number of part (de) activation sensors.........       0

    number of rigid body initial velocity sets.....       0

    jacobian tolerance for type 16 tetrahedron.....    0.0000E+00

    flag to check for NaN in force/moment arrays...       0

    load curve accuracy flag.......................       0

    cycles between evaluation of curve functions...       1


    CONTROL CARD 12. Computation Options-Elements  

    warped shell angle in deg. for error message...    0.2000E+02

    iterative plane stress plasticity for shells...       1
          eq.1:  vectorized with three iterates         
          eq.2:  nonvectorized iterations as needed     
          eq.3:  noniterative radial return             

    Calculation option for F for solid elements....       0
          eq.0:  default, explicit=1, implicit=2        
          eq.1:  integrate incrementally                
          eq.2:  compute directly                       

    flag for automatic sorting ....................       0
          eq. 1:  on for triangular shells              
          eq.11:  on for triangular shells and solids   
          eq.10:  on for solids (tets and pentas)       

    formulation for sorted degenerate tet/pent.....       0
          eq. 0:  no sorting required(default)           
          eq. 1:  type 10 tet & type 15 pent             
          eq. 2:  type 10 tet, 1pt pent to type 15 pent, 
                  fully intg pent to type 115 pent       
          eq. 3:  same as 1 & switch elem in messag file 
          eq. 4:  same as 2 & switch elem in messag file 

    formulation for sorted trianglar shells .......       0
          eq. 0:  no sorting required(default)           
          eq. 1:  C0 triangle, type  4                   
          eq. 2:  DKT triangle type 17                   

    hughes-liu normal computation options..........      -1
          eq.-2: unique nodal fibers                    
          eq.-1: compute normals each cycle
          eq.0 : default set to -1     
          eq.1 : compute on restart
          eq.n : compute on restart + each nth cycle     

    consistent tangent for type 13 solid...........       0
          eq.0 : no, recommended for nonlinear implicit 
          eq.1 : yes, may improve linear response       

    thickness modification for membrane strains....       0
          eq.0:  no                                     
          eq.1:  4-node shell only                      
          eq.2:  8-node thick shell types 1 & 2         
          eq.3:  update both 4 & 8 node thickness       
          eq.4:  same as option 1 but the elastic       
                 strains are neglected                  

    shell part set ID (pids) for thickness update.  0
          lt.0: exclude pids if update option is active  
          eq.0: include  all if update option is active  
          gt.0: include pids if update option is active  

    shell part set ID where type 4 update applies   0

    shell formulation basis........................ 2
          eq.   1: hughes-liu                            
          eq.   2: belytschko-tsay                       
          eq.   3: bciz                                  
          eq.   4: c0-triangular element                 
          eq.   5: membrane element                      
          eq.   6: s/r hughes-liu                        
          eq.   7: s/r co-rotational hughes-liu          
          eq.   8: belytschko-leviathan shell            
          eq.   9: fully integrated membrane             
          eq.  10: belytschko-wong-chiang                
          eq.  11: fast hughes-liu                       
          eq.  12: 2d plane stress                       
          eq.  13: 2d plane strain                       
          eq.  14: 2d axisymmetric  (area wgt)           
          eq.  15: 2d axisymmetric  (volume wgt)         
          eq.  16: fully integrated element              
          eq.  17: dkt element                           
          eq.  18: dkq-dkt linear element                
          eq.  20: assumed strain linear element         
          eq.  21: assumed strain linear element(5DOF)   
          eq.  22: linear shear panel element(3DOF)      
          eq.  23: 8-node quadratic quadrilateral shell  
          eq.  24: 6-node quadratic triangular shell     
          eq.  25: belytschko-tsay with                  
                   thickness stretch                     
          eq.  26: fully integrated element with         
                   thickness stretch                     
          eq.  27: c0-triangular element with            
                   thickness stretch                     
          eq.  29: cohesive element for shell            
                   edge-to-edge connections              
          eq. -29: cohesive element with midlayer        
                   coordinate system for pure shear      
          eq.  31: 2-d 1-pt. eulerian n-s                
          eq.  32: 2-d 4-pt. eulerian n-s                
          eq.  33: 2-d cvfem eulerian n-s                
          eq.  41: meshfree shell local projection       
          eq.  42: meshfree shell global projection      
          eq.  43: meshfree plane strain                 
          eq.  44: meshfree axisymmetric solid           
          eq.  46: cohesive element compatible with 2d   
                   plane stress, plane strain, or        
                   area-weighted axisymmetric elements   
          eq.  47: cohesive element compatible with 2d   
                   volume-weighted axisymmetric elements 
          eq.  98: interpolation shell element           
          eq.  99: elastic vibration element             
          eq. 201: isogeometric nurbs element            
          ge.1000: user defined (generalized) shell      

    # of user specified beam integration rules.....       0
    max number of integration points reqd (beams) .       0
    # of user specified shell integration rules....       0
    max number of integration points reqd (shells).       0
    warping stiffness for Belytschko-Tsay shells...       2
          eq.1:  Belytschko-Wong-Chiang modification    
          eq.2:  original Belytschko-Tsay               

    projection method for warping stiffness........       0
          eq.0:  drill                                   
          eq.1:  full                                    

    reference configuration .......................       0
          eq. 0:  no                                      
          eq. 1:  yes, active for all airbags             
          eq. 2:  yes, reference geometry Dt              
          eq.10:  yes, active for foam elements           
          eq.11:  options 1 and 10 active                 
          eq.12:  options 2 and 10 active                 

    contact reference configuration ...............       0
          eq. 0:  no                                      
          eq. n:  n number of reference nodes             

    invariant node numbering ......................       0
          eq.-4  on for both shell and solid elements   
                 except triangular shells               
          eq.-2  on for shell elements except           
                 triangular shells                      
          eq. 1  off (default)                          
          eq. 2  on for all shell elements              
          eq. 3  on for solid elements with             
                 anisotropic material                   
          eq. 4  on for all shell elements and solid    
                 elements with anisotropic material     

    activation time for reference geometry ........    0.0000E+00

    scale factor for shell rotary mass ............    0.1000E+01

    integration for shell through thickness .......       0
          eq.0:  Gauss                                   
          eq.1:  Lobatto                                 

    use laminated shell theory for material .......       0
    types 22, 54, 55, and 76:                      
          eq.0:  no                                      
          eq.1:  yes for thin shell material types       
                 22, 54, 55, or 76                       
          eq.3:  yes for all thin shell anisotropic      
                 materials or mixed materials            
          eq.4:  yes for all thick shell anisotropic     
                 materials or mixed materials            
          eq.5:  yes for thick and thin shells           

    number of annealed parts .......................       0

    number of new part IDs for COMPOSITE option.....       0

    flag for shell offset vectors .................       0
          eq. 0:  off                                   
          eq. 1:  on                                    

    flag for offset shell contact surface .........       0
          eq. 0:  off                                   
          eq. 1:  on                                    
          eq. 2:  on, but use contact thickness         

    number of point constraints between shells ....       0

    flag for input of beam orientation vectors ....       0

    flag for input of beam offset vectors .........       0

    flag for input of beam warpage scalar nodes....       0

    flag for 12-node shell for thermal ............       0

    local shell coordinate system in type 6 shell..       1
          eq. 0:  uniform local coordinate system       
          eq. 1:  variable local coordinate system      

    Jacobian check on 1 point shells...............       0
          eq. 0:  off                                   
          eq. 1:  on -delete distorted element          
          eq. 2:  on -terminate                         
          eq. n:  terminate when n elements are deleted 

    Jacobian check on 4 point shells...............       0
          eq. 0:  off                                   
          eq. 1:  on -delete distorted element          
          eq. 2:  on -terminate                         
          eq. n:  terminate when n elements are deleted 

    part set ID for Jacobian checks................ 0

    keep contact segment related to failed shell...       0
          eq. 0:  off                                   
          eq. 1:  on                                    
    delete free-free shells in Jacobian checks.....       0
          eq. 0:  off                                   
          eq. 1:  on                                    

    part set ID for drill constraint force ........ 0
    scale factor for drill constraint force .......    0.0000E+00
    method for drill constraint force .............       0
          eq. 0:  generalized drill strain, node based  
          eq. 1:  spin tensor, element based            

    w mode deletion angle in degrees ..............    0.0000E+00

    stretch ratio deletion (l/l0) .................    0.0000E+00

    flag for error exit in case of unwanted        
    interpolation of inital stresses ..............       0

    number of shell  part IDs for termination......       0
          eq. 0:  inactive                              
          gt. 0:  # part IDs where # failed are defined 

    number of solid  part IDs for termination......       0
          eq. 0:  inactive                              
          gt. 0:  # part IDs where # failed are defined 

    integration rule for quadratic tetrahedrons....       4
          eq. 4:  4 point integration formula           
          eq. 5:  5 point integration formula           

    integration rule for quadratic shells..........       3
          eq. 2:  2x2 integration in plane              
          eq. 3:  3x3 integration in plane              

    stress output for solid element spotwelds......       0
          eq. 1:  global (default)                      
          eq. 2:  local                                 

    # of solid elements with death times...........       0

    # of beam  elements with death times...........       0

    # of shell elements with death times...........       0

    # of thick shell elements with death times.....       0

    # of box definitions for element deletion......       0

    # of parts to be annealed......................       0

    flag for input of elbow extra scalar nodes.....       0

    flag for material stochastic variations........       0

    number of tailor welded blanks ................       0

    number of heat affected zone property sets.....       0

    flag for loading segments with file option.....       0

    flag for loading segments FSI link file........       0


    number of solid elements with initial stress ..       0

    number of sph   elements with initial stress ..       0

    number of beam  elements with initial stress ..       0

    number of shell elements with initial stress ..       0

    number of shell elements with initial strain ..       0

    number of iga-shell elms with initial stress ..       0

    number of iga-shell elms with initial strain ..       0

    number of iga-solid elms with initial stress ..       0

    number of iga-solid elms with initial strain ..       0

    maximum number of tensor data .................       0

    maximum number of history variables ...........       0

    no. of thick shell elems with initial stress ..       0

    number of solid elements with initial strain ..       0

    number of solid elements with initial dof......       0

    number of nodes with initial geometry..........       0

    write nodes with initial geometry..............       0
        = 0: do not write nodes
        = 1: write nodes

    number of discrete element spheres.............       0

    flag for initial transverse shear stresses ....       0
        = 0: keep transverse shear stresses (default)
        = 1: set transverse shear stresses to zero

    number of of thick shells with inital strain...       0

    cohesive element flag ICOH = [LK] = K+10*L ....       0
        K = 0: do not delete after neighbor failed
        K = 1: delete after neighbor failed
        L = 0: default time step estimate
        L = 1: most conservative (smallest) 
               time step estimate
        L = 2: intermediate time step estimate


    CONTROL CARD 13. Computation Options-Materials

    hourglass formulation..........................       0
          eq.0   LS-DYNA versions 940 and after         
          eq.1   LS-DYNA versions 936 and before        

    hourglass models                              
          eq.1: standard viscous form                  
          eq.2: flanagan-belytschko viscous form       
                1pt volume integration for solids      
          eq.3: flanagan-belytschko viscous form       
                exact volume integration for solids    
          eq.4: flanagan-belytschko stiffness form     
                1pt volume integration for solids      
          eq.5: flanagan-belytschko stiffness form     
                exact volume integration for solids    
          eq.6: bindeman-belytschko stiffness form     
                for 2d and 3d solid elements only      
          eq.9: puso stiffness form for 3d solid       
                elements only                          

    hourglass model (default)......................       0

    hourglass coefficient (default)................    0.0000E+00

    bulk viscosity type (default)..................       0
          eq.-2: standard +types 2,4,10,16,17 shells+IE 
          eq.-1: standard +types 2,4,10,16,17 shells    
          eq.+1: standard                               

    quadratic bulk viscosity coefficient...........    0.0000E+00

    linear bulk viscosity coefficient..............    0.0000E+00

    bulk viscosity type for beams..................       0
          eq.+1: standard  
          eq.+2: standard + IE 

    flag for rayleigh damping input................       0
          eq.0:  off (default)                          
          eq.1:  on                                     

    flag for rigid/deformable material switching...       1
          eq.1:  off (default)                          
          eq.2:  on                                     
          eq.3:  on and automatic switching             

    thermal effects option.........................       0
          eq.0:  no thermal effects                      
          eq.n:  nodal temps scaled by load ftn -n-      
          eq.-1: coupled thermal mechanical analysis     
          eq.-2: temperature data input option 2         
          eq.-3: thermal solution                        
          eq.-4: Read binary temperature file            
          eq.-9998: user defined load set temp. input    
          eq.-9999: temperature data input option 1      

    thermal curve ID used for dynamic relaxation... 0

    super plastic forming input option.............       0
          eq.0:  skip input                              
          eq.1:  read superplastic input section         

    objective stress update for large Dt...........       0
          eq.0:  off (default)                           
          eq.1:  on globally                             
          eq.2:  on for part subset                      

    default contact parameters input option........       0
          eq.0:  no                                      
          eq.1:  yes                                     

    number of reinforcement cards for mat 84&85....       0

    output interval for aea_crack database.........    0.0000E+00

    number of non local materials..................       0

    neighbours arrays oversized of (%).............       0

    number of parts defined for adaptive failure...       0

    number of elements with specified temperature..       0

    number of parts with spotweld rupture stress...       0

    number of parts with spotweld rupture parametr.       0

    number of spotweld lists.......................       0

    number of rows of opt=10 spot weld failure data       0

    implicit accuracy option to turn on strong     
    objectivity in various features (elements,     
    contacts, constraints, etc.....................       0
          eq.0:  no                                      
          eq.1:  yes                                     

    flag for MAT_ADD_EROSION failure switching ....       0
          eq.0:  on (default)                            
          eq.1:  off globally                            


    CONTROL CARD 14. Computation Options-Damping

    load curve specifying system damping...........       0
          eq.-1: system damping by material             
          eq. n: load curve n defines system damping    

    optional constant for system damping...........    0.0000E+00

    system damping scale factor for x-translation..    0.1000E+01

    system damping scale factor for y-translation..    0.1000E+01

    system damping scale factor for z-translation..    0.1000E+01

    system damping scale factor for x-rotation.....    0.1000E+01

    system damping scale factor for y-rotation.....    0.1000E+01

    system damping scale factor for z-rotation.....    0.1000E+01

    stress initialization flag ....................       0
          eq.-1:  dynamic relaxation (debug option)       
          eq.0:   off                                     
          eq.1:   dynamic relaxation                      
          eq.2:   deformed geometry                       
          eq.3:   dynamic relaxation with part set ID     
          eq.5:   initialize implicitly                   
          eq.-999:off-not activated by load curves        

    convergence check interval (dynamic relaxation)     250

    convergence tolerance for dynamic relaxation...    0.1000E-02

    dynamic relaxation factor......................    0.9950E+00

    termination time for dynamic relaxation........    0.0000E+00
          eq.0.0:  convergence terminates relaxation     
          gt.0.0:  termination at specified time         
                   unless convergence is attained        

    scale factor for dyn relax time step...........    0.9000E+00

    automatic determination of dr factors..........       0
          eq.0:  off (default)                          
          eq.1:  on                                     

    convergence tolerance for above option.........    0.0000E+00

    active part set ID for dynamic relaxation ..... 0



    CONTROL CARD 15. Computation Options-Contact

    scale factor for contact interface penalties...    0.1000E+00

    scale factor for rigid wall penalties..........    0.0000E+00

    flag to activate MADYMO contact coupling.......       0
          eq.0:  inactive                              
          eq.1:  active                                

    track initial penetrations in auto contacts....       0
          eq.0:  no, move node to contact surface      
          eq.1:  yes, initial penetrations remain      

    ignore initial separations in tied contacts....       0
          eq.0:  no, eliminate gaps most accurate      
          eq.1:  yes, may lock rotations               

    contact initial penetration check option.......       1
          eq.1:  off (default)                           
          eq.2:  on                                      

    thickness considered in type 3, 5 or 10 contact       0
          eq.0:  off                                     
          eq.1:  on, but rigid bodies excluded           
          eq.2:  on, rigid bodies are included           

    penalty stiffness option.......................       0
          eq.1:  minimum master/slave value             
          eq.2:  master segment stiffness (old way)     
          eq.3:  slave node stiffness                   
          eq.4:  slave node area/mass weighted          
          eq.5:  like 4 but k proportional to 1/thick   

    thickness changes considered in contact........       0
          eq.0:  no for type 4, 13, and a13 contact      
                 except for segment based contact (SOFT=2),
          eq.1:  yes                                     
          eq.2:  no in any segment based conatct (SOFT=2)

    automatic reorientation option.................       1
          eq.1:  on for automatic contact definitions   
          eq.2:  on                                     
          eq.3:  off                                    

    memory allocation-user contact surface control        0
          gt.0:  memory per interface passed to user    

    memory allocation-user contact surface frict...       0
          gt.0:  memory per interface passed to user    

    number of time steps between contact searching.       0
          eq.0:  LS-DYNA chooses value                  

    intermittent searching in type 3 contact.......       0
          eq.0:  off (default)                           
          eq.1:  on                                      

    release factor for extra searching option......    0.4000E+01

    treatment of nodes in eroding contact..........       0
          eq.0:  delete from calculation                
          eq.1:  keep nodes of eroded solids            
          eq.2:  keep nodes of eroded solids & shells   

    calculation of frictional sliding energy.......       0
          eq.0:  do not calculate                       
          eq.1:  calculate                              

    shell thickness in single surface contact......       0
          eq.0:  use characteristic shell dimension     
          eq.1:  use actual shell thickness             

    time step size override for eroding contact....       0
          eq.0:  contact time size may control dt        
          eq.1:  contact is not considered for dt        

    number of automatic positioning definitions....       0

    print slave node/segment in spotweld contact...       0
          eq.0:  no                                      
          eq.1:  yes, in D3HSP file                     

    option for unconstrained spotweld node/face....       0
          eq.0:  ignore                                 
          eq.1:  terminate                              
          eq.2:  delete weld and continue               

    delete spotweld if tied to failed shell........       0
          eq.0:  no                                     
          ge.1:  yes                                    

    number of friction table definitions...........       0

    read in friction table for automatic contacts..       0
          eq.0:  no                                     
          ne.0:  number of part pair defined for table  

    read in spotweld failure table.................       0
          eq.0:  no                                     
          ne.0:  number of part pair defined for table  

    contact thickness scaling option for welds.....    0.0000E+00
          eq.0.0: inactive                              
          gt.0.0: scale factor on thickness             

    beam spotweld radius scale factor for thinning.    0.0000E+00
          eq.0.0: inactive                              
          gt.0.0: scale factor on radius                

    read in smooth contact flags...................       0
          eq.0:  no
          eq.1:  yes
          Warning: in Shared Memory Program smooth option only 
          available for Forming type  contact

    flag for eliminating faces on symmetry planes..       0
          eq.0:  use all faces                          
          eq.1:  delete faces from contact              

    spotweld tension scaling load curve............       0
    spotweld compression scaling load curve........       0
    spotweld direction scaling table.(tension).....       0
    spotweld direction scaling table (shear)  .....       0
          eq.0:  table for tension scaling is used      
    spotweld print flag (on=1).....................       0

    number of contact volume definitions...........       0

    flag to use one way node to surface erosion....       0

    flag for implicit rigidwall gap stiffness......       1

          eq.1:  add initial gap stiffness              
          eq.2:  do not add gap stiffness               

    death time for gap stiffness...................    0.0000E+00

    penalty scale factor for rigid walls...........    0.1000E+01

    flag for covariant contact formulation.........       0

          eq.0:  covariant formulation not used         
          eq.1:  covariant formulation used             

    flag for offsetting thick thermal contact      
    surfaces in the thermal contacts...............       0

          eq.0:  no offset, if thickness is not included
                 contact will act on shell mid-surface  
          eq.1:  offsets are applied so that contact    
                 always act on the shell outer surfaces 

    flag for shell segment edge shape..............       0
          eq.0:  shell edges assumed round (default)    
          eq.1:  shell edges assumed square             

    stiffness calculation for segment based contact       0
          eq.0:  use material density (default)         
          eq.1:  use nodal masses                       

    flag for consistent thermal contact algorithm..       1
          lt.0:  conduction evenly distributed (pre-R4) 
          eq.1:  conduction weighted by shape functions,
                 reduced integration (default)          
          eq.2:  conduction weighted by shape functions,
                 full integration                       

    flag for optional tied interface update .......       0
          eq.0:  integrate accelerations for v and u    
          eq.1:  differentiate u to obtain v and a      

    flag for overlapping force transducers.........       0
          eq.0:  forces applied to first found (faster) 
          eq.1:  forces applied to all transducers      

    scale factor for contact interface mass scaling    0.0000E+00
    shell thickness scale factor for rigidwall ....    0.0000E+00
    flag of contact involving isogeometric ele ....       0
          eq.0:  interp. node vs. interp. facet         
          eq.1:  interp. node vs. isogeometric element  
    print out penetration info for mortar contact..       0
    scale factor for contact pressure on thickness
    shells.........................................    0.1000E+01


    CONTROL CARD 16. Computation Options-Parallel

    number of cpus for parallel computations.......       1

    parallel right hand side assembly..............       0
          eq.0:  on  (default)                          
          eq.1:  off                                    

    flag for automatic subcycling..................       0
          eq.0:  off (default)                          
          eq.1:  on                                     

    number of part IDs for mass scaled subcycling..       0

    flag for repeatability in parallel solution....       0
          eq.1:  on  (ordered RHS summation-slower)     
          eq.2:  off (default)                          

    use memory to parallelize repeatability option.       0
          eq.0:  off                                    
          eq.1:  on                                     
    maximum time step factor for subcycling........       0


    CONTROL CARD 17. Computation Options-Coupling

    length conversion factor coupling..............    0.1000E+01

    time conversion factor coupling................    0.1000E+01

    force conversion factor coupling...............    0.1000E+01

[...]
 average cpu time per zone cycle....         0 nanoseconds
 average clock time per zone cycle..         0 nanoseconds


 dt of cycle   32800 is controlled by shell             74 of part         1

 time...........................   3.62943E+01
 time step......................   1.10655E-03
 kinetic energy.................   7.98617E-02
 internal energy................   1.28866E-01
 spring and damper energy.......   1.00000E-20
 system damping energy..........   0.00000E+00
 sliding interface energy.......   0.00000E+00
 external work..................   2.08730E-01
 eroded kinetic energy..........   0.00000E+00
 eroded internal energy.........   0.00000E+00
 eroded hourglass energy........   0.00000E+00
 total energy...................   2.08728E-01
 total energy / initial energy..   9.99989E-01
 energy ratio w/o eroded energy.   9.99989E-01
 global x velocity..............   3.81729E-01
 global y velocity..............  -4.14364E-04
 global z velocity..............  -1.67387E+00
 cpu time per zone cycle............         0 nanoseconds
 average cpu time per zone cycle....         0 nanoseconds
 average clock time per zone cycle..         0 nanoseconds


 dt of cycle   32900 is controlled by shell             74 of part         1

 time...........................   3.64050E+01
 time step......................   1.10655E-03
 kinetic energy.................   7.68804E-02
 internal energy................   1.31848E-01
 spring and damper energy.......   1.00000E-20
 system damping energy..........   0.00000E+00
 sliding interface energy.......   0.00000E+00
 external work..................   2.08730E-01
 eroded kinetic energy..........   0.00000E+00
 eroded internal energy.........   0.00000E+00
 eroded hourglass energy........   0.00000E+00
 total energy...................   2.08728E-01
 total energy / initial energy..   9.99989E-01
 energy ratio w/o eroded energy.   9.99989E-01
 global x velocity..............   3.80384E-01
 global y velocity..............  -6.07927E-04
 global z velocity..............  -1.65266E+00
 cpu time per zone cycle............         0 nanoseconds
 average cpu time per zone cycle....         0 nanoseconds
 average clock time per zone cycle..         0 nanoseconds


 dt of cycle   33000 is controlled by shell             74 of part         1

 time...........................   3.65156E+01
 time step......................   1.10655E-03
 kinetic energy.................   7.39096E-02
 internal energy................   1.34819E-01
 spring and damper energy.......   1.00000E-20
 system damping energy..........   0.00000E+00
 sliding interface energy.......   0.00000E+00
 external work..................   2.08730E-01
 eroded kinetic energy..........   0.00000E+00
 eroded internal energy.........   0.00000E+00
 eroded hourglass energy........   0.00000E+00
 total energy...................   2.08728E-01
 total energy / initial energy..   9.99989E-01
 energy ratio w/o eroded energy.   9.99989E-01
 global x velocity..............   3.77120E-01
 global y velocity..............  -5.13286E-04
 global z velocity..............  -1.62569E+00
 cpu time per zone cycle............         0 nanoseconds
 average cpu time per zone cycle....         0 nanoseconds
 average clock time per zone cycle..         0 nanoseconds


 dt of cycle   33100 is controlled by shell             74 of part         1

 time...........................   3.66263E+01
 time step......................   1.10655E-03
 kinetic energy.................   7.09881E-02
 internal energy................   1.37740E-01
 spring and damper energy.......   1.00000E-20
 system damping energy..........   0.00000E+00
 sliding interface energy.......   0.00000E+00
 external work..................   2.08730E-01
 eroded kinetic energy..........   0.00000E+00
 eroded internal energy.........   0.00000E+00
 eroded hourglass energy........   0.00000E+00
 total energy...................   2.08728E-01
 total energy / initial energy..   9.99989E-01
 energy ratio w/o eroded energy.   9.99989E-01
 global x velocity..............   3.83389E-01
 global y velocity..............  -2.33352E-04
 global z velocity..............  -1.58151E+00
 cpu time per zone cycle............         0 nanoseconds
 average cpu time per zone cycle....         0 nanoseconds
 average clock time per zone cycle..         0 nanoseconds


 dt of cycle   33200 is controlled by shell             74 of part         1

 time...........................   3.67369E+01
 time step......................   1.10654E-03
 kinetic energy.................   6.82384E-02
 internal energy................   1.40490E-01
 spring and damper energy.......   1.00000E-20
 system damping energy..........   0.00000E+00
 sliding interface energy.......   0.00000E+00
 external work..................   2.08730E-01
 eroded kinetic energy..........   0.00000E+00
 eroded internal energy.........   0.00000E+00
 eroded hourglass energy........   0.00000E+00
 total energy...................   2.08728E-01
 total energy / initial energy..   9.99989E-01
 energy ratio w/o eroded energy.   9.99989E-01
 global x velocity..............   3.88936E-01
 global y velocity..............  -2.97046E-04
 global z velocity..............  -1.54298E+00
 cpu time per zone cycle............         0 nanoseconds
 average cpu time per zone cycle....         0 nanoseconds
 average clock time per zone cycle..         0 nanoseconds


 dt of cycle   33300 is controlled by shell             74 of part         1

 time...........................   3.68476E+01
 time step......................   1.10654E-03
 kinetic energy.................   6.54936E-02
 internal energy................   1.43234E-01
 spring and damper energy.......   1.00000E-20
 system damping energy..........   0.00000E+00
 sliding interface energy.......   0.00000E+00
 external work..................   2.08730E-01
 eroded kinetic energy..........   0.00000E+00
 eroded internal energy.........   0.00000E+00
 eroded hourglass energy........   0.00000E+00
 total energy...................   2.08728E-01
 total energy / initial energy..   9.99989E-01
 energy ratio w/o eroded energy.   9.99989E-01
 global x velocity..............   3.80098E-01
 global y velocity..............  -2.98005E-04
 global z velocity..............  -1.52592E+00
 cpu time per zone cycle............         0 nanoseconds
 average cpu time per zone cycle....         0 nanoseconds
 average clock time per zone cycle..         0 nanoseconds


 dt of cycle   33400 is controlled by shell             74 of part         1

 time...........................   3.69583E+01
 time step......................   1.10654E-03
 kinetic energy.................   6.27371E-02
 internal energy................   1.45991E-01
 spring and damper energy.......   1.00000E-20
 system damping energy..........   0.00000E+00
 sliding interface energy.......   0.00000E+00
 external work..................   2.08730E-01
 eroded kinetic energy..........   0.00000E+00
 eroded internal energy.........   0.00000E+00
 eroded hourglass energy........   0.00000E+00
 total energy...................   2.08728E-01
 total energy / initial energy..   9.99988E-01
 energy ratio w/o eroded energy.   9.99988E-01
 global x velocity..............   3.73551E-01
 global y velocity..............  -3.17136E-04
 global z velocity..............  -1.50948E+00
 cpu time per zone cycle............         0 nanoseconds
 average cpu time per zone cycle....         0 nanoseconds
 average clock time per zone cycle..         0 nanoseconds

   33437 t 3.6999E+01 dt 1.11E-03 write d3plot file            03/08/23 13:53:48

 dt of cycle   33500 is controlled by shell             74 of part         1

 time...........................   3.70689E+01
 time step......................   1.10654E-03
 kinetic energy.................   6.00057E-02
 internal energy................   1.48722E-01
 spring and damper energy.......   1.00000E-20
 system damping energy..........   0.00000E+00
 sliding interface energy.......   0.00000E+00
 external work..................   2.08730E-01
 eroded kinetic energy..........   0.00000E+00
 eroded internal energy.........   0.00000E+00
 eroded hourglass energy........   0.00000E+00
 total energy...................   2.08728E-01
 total energy / initial energy..   9.99988E-01
 energy ratio w/o eroded energy.   9.99988E-01
 global x velocity..............   3.59362E-01
 global y velocity..............  -1.43654E-04
 global z velocity..............  -1.50152E+00
 cpu time per zone cycle............         0 nanoseconds
 average cpu time per zone cycle....         0 nanoseconds
 average clock time per zone cycle..         0 nanoseconds


 dt of cycle   33600 is controlled by shell             74 of part         1

 time...........................   3.71796E+01
 time step......................   1.10654E-03
 kinetic energy.................   5.73123E-02
 internal energy................   1.51416E-01
 spring and damper energy.......   1.00000E-20
 system damping energy..........   0.00000E+00
 sliding interface energy.......   0.00000E+00
 external work..................   2.08730E-01
 eroded kinetic energy..........   0.00000E+00
 eroded internal energy.........   0.00000E+00
 eroded hourglass energy........   0.00000E+00
 total energy...................   2.08728E-01
 total energy / initial energy..   9.99988E-01
 energy ratio w/o eroded energy.   9.99988E-01
 global x velocity..............   3.46917E-01
 global y velocity..............   2.99797E-04
 global z velocity..............  -1.49149E+00
 cpu time per zone cycle............         0 nanoseconds
 average cpu time per zone cycle....         0 nanoseconds
 average clock time per zone cycle..         0 nanoseconds


 dt of cycle   33700 is controlled by shell             74 of part         1

 time...........................   3.72902E+01
 time step......................   1.10653E-03
 kinetic energy.................   5.47220E-02
 internal energy................   1.54006E-01
 spring and damper energy.......   1.00000E-20
 system damping energy..........   0.00000E+00
 sliding interface energy.......   0.00000E+00
 external work..................   2.08730E-01
 eroded kinetic energy..........   0.00000E+00
 eroded internal energy.........   0.00000E+00
 eroded hourglass energy........   0.00000E+00
 total energy...................   2.08728E-01
 total energy / initial energy..   9.99988E-01
 energy ratio w/o eroded energy.   9.99988E-01
 global x velocity..............   3.35428E-01
 global y velocity..............   5.89254E-04
 global z velocity..............  -1.48201E+00
 cpu time per zone cycle............         0 nanoseconds
 average cpu time per zone cycle....         0 nanoseconds
 average clock time per zone cycle..         0 nanoseconds


 dt of cycle   33800 is controlled by shell             74 of part         1

 time...........................   3.74009E+01
 time step......................   1.10653E-03
 kinetic energy.................   5.21805E-02
 internal energy................   1.56547E-01
 spring and damper energy.......   1.00000E-20
 system damping energy..........   0.00000E+00
 sliding interface energy.......   0.00000E+00
 external work..................   2.08730E-01
 eroded kinetic energy..........   0.00000E+00
 eroded internal energy.........   0.00000E+00
 eroded hourglass energy........   0.00000E+00
 total energy...................   2.08728E-01
 total energy / initial energy..   9.99988E-01
 energy ratio w/o eroded energy.   9.99988E-01
 global x velocity..............   3.24964E-01
 global y velocity..............   4.03596E-04
 global z velocity..............  -1.46948E+00
 cpu time per zone cycle............         0 nanoseconds
 average cpu time per zone cycle....         0 nanoseconds
 average clock time per zone cycle..         0 nanoseconds


 dt of cycle   33900 is controlled by shell             74 of part         1

 time...........................   3.75115E+01
 time step......................   1.10653E-03
 kinetic energy.................   4.97974E-02
 internal energy................   1.58931E-01
 spring and damper energy.......   1.00000E-20
 system damping energy..........   0.00000E+00
 sliding interface energy.......   0.00000E+00
 external work..................   2.08730E-01
 eroded kinetic energy..........   0.00000E+00
 eroded internal energy.........   0.00000E+00
 eroded hourglass energy........   0.00000E+00
 total energy...................   2.08728E-01
 total energy / initial energy..   9.99989E-01
 energy ratio w/o eroded energy.   9.99989E-01
 global x velocity..............   3.10220E-01
 global y velocity..............   2.53018E-04
 global z velocity..............  -1.45495E+00
 cpu time per zone cycle............         0 nanoseconds
 average cpu time per zone cycle....         0 nanoseconds
 average clock time per zone cycle..         0 nanoseconds


 dt of cycle   34000 is controlled by shell             74 of part         1

 time...........................   3.76222E+01
 time step......................   1.10653E-03
 kinetic energy.................   4.75120E-02
 internal energy................   1.61216E-01
 spring and damper energy.......   1.00000E-20
 system damping energy..........   0.00000E+00
 sliding interface energy.......   0.00000E+00
 external work..................   2.08730E-01
 eroded kinetic energy..........   0.00000E+00
 eroded internal energy.........   0.00000E+00
 eroded hourglass energy........   0.00000E+00
 total energy...................   2.08728E-01
 total energy / initial energy..   9.99989E-01
 energy ratio w/o eroded energy.   9.99989E-01
 global x velocity..............   2.95035E-01
 global y velocity..............   1.05432E-04
 global z velocity..............  -1.43913E+00
 cpu time per zone cycle............         0 nanoseconds
 average cpu time per zone cycle....         0 nanoseconds
 average clock time per zone cycle..         0 nanoseconds


 dt of cycle   34100 is controlled by shell             74 of part         1

 time...........................   3.77328E+01
 time step......................   1.10653E-03
 kinetic energy.................   4.51907E-02
 internal energy................   1.63537E-01
 spring and damper energy.......   1.00000E-20
 system damping energy..........   0.00000E+00
 sliding interface energy.......   0.00000E+00
 external work..................   2.08730E-01
 eroded kinetic energy..........   0.00000E+00
 eroded internal energy.........   0.00000E+00
 eroded hourglass energy........   0.00000E+00
 total energy...................   2.08728E-01
 total energy / initial energy..   9.99989E-01
 energy ratio w/o eroded energy.   9.99989E-01
 global x velocity..............   2.86731E-01
 global y velocity..............   9.96461E-05
 global z velocity..............  -1.41949E+00
 cpu time per zone cycle............         0 nanoseconds
 average cpu time per zone cycle....         0 nanoseconds
 average clock time per zone cycle..         0 nanoseconds


 dt of cycle   34200 is controlled by shell             74 of part         1

 time...........................   3.78435E+01
 time step......................   1.10652E-03
 kinetic energy.................   4.28761E-02
 internal energy................   1.65852E-01
 spring and damper energy.......   1.00000E-20
 system damping energy..........   0.00000E+00
 sliding interface energy.......   0.00000E+00
 external work..................   2.08730E-01
 eroded kinetic energy..........   0.00000E+00
 eroded internal energy.........   0.00000E+00
 eroded hourglass energy........   0.00000E+00
 total energy...................   2.08728E-01
 total energy / initial energy..   9.99989E-01
 energy ratio w/o eroded energy.   9.99989E-01
 global x velocity..............   2.83195E-01
 global y velocity..............   8.64890E-05
 global z velocity..............  -1.38841E+00
 cpu time per zone cycle............         0 nanoseconds
 average cpu time per zone cycle....         0 nanoseconds
 average clock time per zone cycle..         0 nanoseconds


 dt of cycle   34300 is controlled by shell             74 of part         1

 time...........................   3.79541E+01
 time step......................   1.10652E-03
 kinetic energy.................   4.06318E-02
 internal energy................   1.68096E-01
 spring and damper energy.......   1.00000E-20
 system damping energy..........   0.00000E+00
 sliding interface energy.......   0.00000E+00
 external work..................   2.08730E-01
 eroded kinetic energy..........   0.00000E+00
 eroded internal energy.........   0.00000E+00
 eroded hourglass energy........   0.00000E+00
 total energy...................   2.08728E-01
 total energy / initial energy..   9.99989E-01
 energy ratio w/o eroded energy.   9.99989E-01
 global x velocity..............   2.70168E-01
 global y velocity..............  -2.47498E-04
 global z velocity..............  -1.36326E+00
 cpu time per zone cycle............         0 nanoseconds
 average cpu time per zone cycle....         0 nanoseconds
 average clock time per zone cycle..         0 nanoseconds

   34341 t 3.8000E+01 dt 1.11E-03 write d3plot file            03/08/23 13:53:48
 
 *** termination time reached ***
   34341 t 3.8001E+01 dt 1.11E-03 write d3dump01 file          03/08/23 13:53:48
   34341 t 3.8001E+01 dt 1.11E-03 write d3plot file            03/08/23 13:53:48

 N o r m a l    t e r m i n a t i o n                          03/08/23 13:53:48

 S t o r a g e   a l l o c a t i o n   

 Memory required to complete solution   :     356K
 Additional dynamically allocated memory:     429K
                                   Total:     429K

 T i m i n g   i n f o r m a t i o n
                        CPU(seconds)   %CPU  Clock(seconds) %Clock
  ----------------------------------------------------------------
  Keyword Processing ... 0.0000E+00    0.00     3.5000E-02    1.26
    KW Reading ......... 0.0000E+00    0.00     7.0000E-03    0.25
    KW Writing ......... 0.0000E+00    0.00     6.0000E-03    0.22
  Initialization ....... 0.0000E+00    0.00     6.6900E-01   24.09
    Init Proc Phase 1 .. 0.0000E+00    0.00     3.8500E-01   13.86
  Element processing ... 1.0000E+00   50.00     1.5040E+00   54.16
    Shells ............. 1.0000E+00   50.00     1.4670E+00   52.83
    ISO Shells ......... 0.0000E+00    0.00     4.0000E-03    0.14
  Binary databases ..... 0.0000E+00    0.00     1.4000E-02    0.50
  ASCII database ....... 0.0000E+00    0.00     3.7000E-02    1.33
  Contact algorithm .... 0.0000E+00    0.00     3.2000E-02    1.15
  Rigid Bodies ......... 0.0000E+00    0.00     2.8000E-02    1.01
  Time step size ....... 0.0000E+00    0.00     1.5000E-02    0.54
  Rigid wall ........... 0.0000E+00    0.00     4.0000E-03    0.14
  Bnd prescribed opt ... 0.0000E+00    0.00     8.0000E-03    0.29
  Group force file ..... 0.0000E+00    0.00     8.0000E-03    0.29
  Others ............... 0.0000E+00    0.00     2.2000E-02    0.79
  Misc. 1 .............. 0.0000E+00    0.00     1.3200E-01    4.75
  Misc. 2 .............. 0.0000E+00    0.00     6.7000E-02    2.41
  Misc. 3 .............. 1.0000E+00   50.00     1.3900E-01    5.01
  Misc. 4 .............. 0.0000E+00    0.00     6.3000E-02    2.27
  ----------------------------------------------------------------
  T o t a l s            2.0000E+00  100.00     2.7770E+00  100.00

 Problem time       =    3.8001E+01
 Problem cycle      =     34341
 Total CPU time     =         2 seconds (   0 hours  0 minutes  2 seconds)
 CPU time per zone cycle  =        776.526 nanoseconds
 Clock time per zone cycle=        804.869 nanoseconds

 Number of CPU's    1
 NLQ used/max     136/  136
 Start time   03/08/2023 13:53:46  
 End time     03/08/2023 13:53:48  
 Elapsed time       2 seconds for   34341 cycles using  1 SMP thread 
             (      0 hour   0 minute   2 seconds)

 N o r m a l    t e r m i n a t i o n                          03/08/23 13:53:48
