*KEYWORD
*PARAMETER
I no_use  0  
*CONTROL_TERMINATION
      38.                                                  
*DATABASE_BINARY_D3PLOT
        1.                                        
         0                                                  
*NODE
       1              8.       6.6666665              0.       0       0
       2              0.       6.6666665              0.       0       0
       3              0.              0.              0.       0       0
       4              8.       13.333333              0.       0       0
       5             16.       6.6666665              0.       0       0
       6              0.       13.333333              0.       0       0
       7             16.       13.333333              0.       0       0
       8              8.              0.              0.       0       0
       9             24.       6.6666665              0.       0       0
      10             24.       13.333333              0.       0       0
      11             32.       6.6666665              0.       0       0
      12             32.       13.333333              0.       0       0
      13             16.              0.              0.       0       0
      14              8.             20.              0.       0       0
      15              0.             20.              0.       0       0
      16             40.       6.6666665              0.       0       0
      17             40.       13.333333              0.       0       0
      18             24.              0.              0.       0       0
      19             48.       6.6666665              0.       0       0
      20             48.       13.333333              0.       0       0
$ ... 84 like lines cut
*ELEMENT_SHELL
       1       1       1       2       3       8
       2       1       4       6       2       1
       3       1       5       1       8      13
       4       1      14      15       6       4
       5       1       7       4       1       5
       6       1       9       5      13      18
       7       1      39      14       4       7
       8       1      10       7       5       9
       9       1      11       9      18      22
      10       1      46      39       7      10
      11       1      12      10       9      11
      12       1      16      11      22      27
      13       1      55      46      10      12
      14       1      17      12      11      16
      15       1      19      16      27      38
      16       1      63      55      12      17
      17       1      20      17      16      19
      18       1      21      19      38      44
      19       1      66      63      17      20
      20       1      23      20      19      21
$ ... 55 like lines cut
*PART
Steel plate
         1         1         1                             0         0          
*SECTION_SHELL_TITLE
Steel plate
         1        16     0.833        3.        1.         0         0
        1.        1.        1.        1.                            0.          
*BOUNDARY_PRESCRIBED_MOTION_NODE_ID
         5                                                                      
         3         3         1         1       0.6         0       10.        0.
         6                                                                      
         2         3         1         1       0.6         0       10.        0.
         7                                                                      
         6         3         1         1       0.6         0       10.        0.
         8                                                                      
        15         3         1         1      1.15            0       38.        0.
*BOUNDARY_SPC_NODE_BIRTH_DEATH_ID 
         2                                                                      
       205                   1         1         1         1         1         1
        0.      38.  
*BOUNDARY_SPC_NODE_BIRTH_DEATH_ID
         3                                                                      
       204                   1         1         1         1         1         1
        0.      38.  
*BOUNDARY_SPC_NODE_BIRTH_DEATH_ID
         4                                                                      
       202                   1         1         1         1         1         1
        0.      38.  
*BOUNDARY_SPC_NODE_BIRTH_DEATH_ID
         9                                                                      
       197                   1         1         1         1         1         1
        0.      38.  
*MAT_ELASTIC_TITLE
Elastic steel
         1   7.85E-6      210.       0.3        0.        0.        0.
*DEFINE_CURVE_TITLE
acceleration
         1         0        1.        1.        0.        0.         0         0
                  0.                  1.
                 10.                  1.
                 11.                  0.
$ANSA_COLOR;1;SECTION_SHELL;.835294127464294;.537254929542542;.545098066329956;1
$.;
$ANSA_COLOR;1;MAT1 MAT_ELASTIC;.603921592235565;.490196079015732;.46666666865348
$8;1.;
$ANSA_USER_ATTRIBUTES;SECTION_SHELL;User/cad_material;TEXT;RW;YES;;;
$ANSA_USER_ATTRIBUTES;SECTION_SHELL;User/cad_thickness;TEXT;RW;YES;;;
$ANSA_PART;PART;ID;1;NAME;Untitled;BELONGS_HERE;YES;STUDY_VERSION;0;PID_OFFSET;0
$;COLOR;154;125;119;0;IS_COLOR_ACTIVE;1;PART_TYPE;Undefined;ATTRIBUTES;2;DM/File
$ Type;ANSA;DM/Status;WIP;CONTAINS;SECTION_SHELL;1;
*END
